%%%%%%%%%%%%%%%%%%%%%%%%%%%%%%%%%%%%%%%%%%%%%%%%%%%%%%%%%%%%%%%%%%%%%%%%%%%%%%%%
%                                                                              %
% SU2 configuration file                                                       %
% Case description: Radial Compressor Impeller Eckardt O                       %
% Author: M. Souza dos Santos Pereira Neto                                     %
% Institution: University of São Paulo                                         %
% Date: Aug 03rd, 2024                                                         %
% File Version 5.0.0 "Raven" - branch "feature_turbomachinery"                 %
%                                                                              %
%%%%%%%%%%%%%%%%%%%%%%%%%%%%%%%%%%%%%%%%%%%%%%%%%%%%%%%%%%%%%%%%%%%%%%%%%%%%%%%%
%
% Enable multizone feature
%MULTIZONE= YES
%
% List of config files for zone-specific options
%CONFIG_LIST=(INLET.cfg, IMPELLER.cfg, OUTLET.cfg)
%
% ------------- DIRECT, ADJOINT, AND LINEARIZED PROBLEM DEFINITION ------------%
%
% Physical governing equations (EULER, NAVIER_STOKES,
%                               WAVE_EQUATION, HEAT_EQUATION, LINEAR_ELASTICITY,
%                               POISSON_EQUATION)                         
SOLVER= RANS
%PHYSICAL_PROBLEM= NAVIER_STOKES
%
% Specify turbulent model (NONE, SA, SST)
KIND_TURB_MODEL= SA
%
% Regime type (COMPRESSIBLE, INCOMPRESSIBLE)
%REGIME_TYPE= COMPRESSIBLE
%
% Mathematical problem (DIRECT, ADJOINT, LINEARIZED)
MATH_PROBLEM= DIRECT
%
% Restart solution (NO, YES)
RESTART_SOL= NO
%
%
% -------------------- COMPRESSIBLE FREE-STREAM DEFINITION --------------------%
%
% Mach number (non-dimensional, based on the free-stream values)
MACH_NUMBER= 0.05
%
% Angle of attack (degrees, only for compressible flows)
AOA= 0.0
%
% Free-stream pressure (101325.0 N/m^2 by default, only Euler flows)  
FREESTREAM_PRESSURE= 101325.0
%
% Free-stream temperature (273.15 K by default)
FREESTREAM_TEMPERATURE= 288.15
%
% Free-stream temperature (1.2886 Kg/m3 by default)
FREESTREAM_DENSITY= 1.2886
%
% Free-stream option to choose if you want to use Density (DENSITY_FS) or Temperature (TEMPERATURE_FS) to initialize the solution
FREESTREAM_OPTION= TEMPERATURE_FS
%
% Free-stream Turbulence Intensity
FREESTREAM_TURBULENCEINTENSITY = 0.05
%
% Free-stream Turbulent to Laminar viscosity ratio
FREESTREAM_TURB2LAMVISCRATIO = 100.0
%
%Init option to choose between Reynolds (default) or thermodynamics quantities for initializing the solution (REYNOLDS, TD_CONDITIONS)
INIT_OPTION= TD_CONDITIONS
%
% ---------------------- REFERENCE VALUE DEFINITION ---------------------------%
%
% Reference origin for moment computation
REF_ORIGIN_MOMENT_X = 0.00
REF_ORIGIN_MOMENT_Y = 0.00
REF_ORIGIN_MOMENT_Z = 0.00
%
% Reference length for pitching, rolling, and yawing non-dimensional moment
REF_LENGTH= 1.0
%
% Reference area for force coefficients (0 implies automatic calculation)
REF_AREA= 1.0
%
%
% Flow non-dimensionalization (DIMENSIONAL, FREESTREAM_PRESS_EQ_ONE,
%                              FREESTREAM_VEL_EQ_MACH, FREESTREAM_VEL_EQ_ONE)
REF_DIMENSIONALIZATION= DIMENSIONAL
%
%
% ------------------------------ EQUATION OF STATE ----------------------------%
%
% Different gas model (STANDARD_AIR, IDEAL_GAS, VW_GAS, PR_GAS)
FLUID_MODEL= IDEAL_GAS
%
% --------------------------- VISCOSITY MODEL ---------------------------------%
%
% Viscosity model (SUTHERLAND, CONSTANT_VISCOSITY).
VISCOSITY_MODEL= SUTHERLAND
%
% Sutherland Viscosity Ref (1.716E-5 default value for AIR SI)
MU_REF= 1.716E-5
%
% Sutherland Temperature Ref (273.15 K default value for AIR SI)
MU_T_REF= 273.15
%
% Sutherland constant (110.4 default value for AIR SI)
SUTHERLAND_CONSTANT= 110.4
%
%
% --------------------------- THERMAL CONDUCTIVITY MODEL ----------------------%
%
% Conductivity model (CONSTANT_CONDUCTIVITY, CONSTANT_PRANDTL).
CONDUCTIVITY_MODEL= CONSTANT_PRANDTL
%
% -------------------- BOUNDARY CONDITION DEFINITION --------------------------%
%
MARKER_HEATFLUX= (PassageHUB, 0.0, PassageSHROUD, 0.0, Blade2, 0.0, Splitter2, 0.0, OUTBlockHUB, 0.0, OUTBlockSHROUD, 0.0)
MARKER_RIEMANN= (PassageINFLOW, TOTAL_CONDITIONS_PT, 0.0, 0.0, 0.0, 0.0, 0.0, OUTFLOWPassage, MIXING_IN, 0.0, 0.0, 0.0, 1.0, 0.0, INFLOWOUTBlock, MIXING_OUT, 0.0, 0.0, 0.0, 1.0, 0.0, OUTBlockOUTFLOW, STATIC_PRESSURE, 0.0, 0.0, 0.0, 0.0, 0.0)
MARKER_PERIODIC= (PassagePER1, PassagePER2, 0.0, 0.0, 0.0, 0.0, 0.0, 36.0, 0.0, 0.0, 0.0, OUTBlockPER1, OUTBlockPER2, 0.0, 0.0, 0.0, 0.0, 0.0, 36.0, 0.0, 0.0, 0.0)
%---------------------------- TURBOMACHINERY SIMULATION -----------------------------%
%
% Specify kind of architecture (AXIAL, CENTRIPETAL, CENTRIFUGAL, CENTRIPETAL_AXIAL, AXIAL_CENTRIFUGAL)
TURBOMACHINERY_KIND= AXIAL_CENTRIFUGAL
%
%TURBO_PERF_KIND= (COMPRESSOR, COMPRESSOR, COMPRESSOR)
%
%TURBO_INTERFACE_KIND= (MIXING_PLANE, MIXING_PLANE)
%
% Specify kind of interpolation for the mixing-plane (LINEAR_INTERPOLATION, NEAREST_SPAN, MATCHING)
%MIXINGPLANE_INTERFACE_KIND= MATCHING
%
% Specify option for turbulent mixing-plane (YES, NO) default NO
%TURBULENT_MIXINGPLANE= YES
%
% Specify ramp option for Outlet pressure (YES, NO) default NO
RAMP_OUTLET_PRESSURE= NO
%
% Parameters of the outlet pressure ramp (starting outlet pressure, updating-iteration-frequency, total number of iteration for the ramp)
RAMP_OUTLET_PRESSURE_COEFF= (1.1e5.0, 10.0, 2000)
%
%
% Specify Kind of average process for linearizing the Navier-Stokes equation at inflow and outflow BC included mixing-plane
% (ALGEBRAIC, AREA, MASSSFLUX, MIXEDOUT) default AREA 
AVERAGE_PROCESS_KIND= MIXEDOUT
%
% Specify Kind of average process for computing turbomachienry performance parameters
% (ALGEBRAIC, AREA, MASSSFLUX, MIXEDOUT) default AREA
PERFORMANCE_AVERAGE_PROCESS_KIND= MIXEDOUT
%
%Parameters of the Newton method for the MIXEDOUT average algorithm (under relaxation factor, tollerance, max number of iterations) 
MIXEDOUT_COEFF= (1.0, 1.0E-05, 15)
%
% Limit of Mach number below which the mixedout algorithm is substituted with a AREA average algorithm
AVERAGE_MACH_LIMIT= 0.05
%
%
% ------------------------ SURFACES IDENTIFICATION ----------------------------%
%
% Marker(s) of the surface in the surface flow solution file
%MARKER_PLOTTING= (BLADE)
%
%
%
% ------------- COMMON PARAMETERS DEFINING THE NUMERICAL METHOD ---------------%
%
% Numerical method for spatial gradients (GREEN_GAUSS, WEIGHTED_LEAST_SQUARES)
NUM_METHOD_GRAD= WEIGHTED_LEAST_SQUARES
%
% Courant-Friedrichs-Lewy condition of the finest grid
CFL_NUMBER= 2.5
%
% Adaptive CFL number (NO, YES)
CFL_ADAPT= NO
%
% Parameters of the adaptive CFL number (factor down, factor up, CFL min value, CFL max value )
CFL_ADAPT_PARAM= ( 0.1, 1.2, 5.0, 100.0)
%
%
% ------------------------ LINEAR SOLVER DEFINITION ---------------------------%
%
% Linear solver or smoother for implicit formulations (BCGSTAB, FGMRES, SMOOTHER)
LINEAR_SOLVER= BCGSTAB
%
% Preconditioner of the Krylov linear solver (ILU, LU_SGS, LINELET, JACOBI)
LINEAR_SOLVER_PREC= LU_SGS
%
% Min error of the linear solver for the implicit formulation
LINEAR_SOLVER_ERROR= 1E-4
%
% Max number of iterations of the linear solver for the implicit formulation
LINEAR_SOLVER_ITER= 10
%
%
% -------------------------- MULTIGRID PARAMETERS -----------------------------%
%
% ----------- NOT WORKING WITH PERIODIC BOUNDARY CONDITIONS !!!!! --------------%
%
%
%
% -------------------- FLOW NUMERICAL METHOD DEFINITION -----------------------%
%
% Convective numerical method (JST, LAX-FRIEDRICH, CUSP, ROE, AUSM, HLLC,
%                              TURKEL_PREC, MSW)
CONV_NUM_METHOD_FLOW= JST
%
% Spatial numerical order integration (1ST_ORDER, 2ND_ORDER, 2ND_ORDER_LIMITER)
MUSCL_FLOW= NO
%
% 2nd and 4th order artificial dissipation coefficients
JST_SENSOR_COEFF= ( 0.5, 0.03125 )
%
% Time discretization (RUNGE-KUTTA_EXPLICIT, EULER_IMPLICIT, EULER_EXPLICIT)
TIME_DISCRE_FLOW= EULER_IMPLICIT

% -------------------- TURBULENT NUMERICAL METHOD DEFINITION ------------------%
%
% Convective numerical method (SCALAR_UPWIND)
CONV_NUM_METHOD_TURB= SCALAR_UPWIND
%
% Monotonic Upwind Scheme for Conservation Laws (TVD) in the turbulence equations.
%           Required for 2nd order upwind schemes (NO, YES)
MUSCL_TURB= NO
%
% Slope limiter (VENKATAKRISHNAN, MINMOD)
SLOPE_LIMITER_TURB= VENKATAKRISHNAN
%
% Time discretization (EULER_IMPLICIT)
TIME_DISCRE_TURB= EULER_IMPLICIT
%
% Reduction factor of the CFL coefficient in the turbulence problem
CFL_REDUCTION_TURB= 1.0
%
% --------------------------- CONVERGENCE PARAMETERS --------------------------%
%
% Number of total iterations
OUTER_ITER= 5
%
INNER_ITER= 1
%
% Min value of the residual (log10 of the residual)
CONV_RESIDUAL_MINVAL= -8
%
% Start convergence criteria at iteration number
CONV_STARTITER= 10
%
% Number of elements to apply the criteria
CONV_CAUCHY_ELEMS= 100
%
% Epsilon to control the series convergence
CONV_CAUCHY_EPS= 1E-6
%
%
% ------------------------- SCREEN/HISTORY VOLUME OUTPUT --------------------------%
%
% Screen output fields (use 'SU2_CFD -d <config_file>' to view list of available fields)
%SCREEN_OUTPUT= (OUTER_ITER, RMS_DENSITY[0], RMS_DENSITY[1], RMS_DENSITY[2], RMS_MOMENTUM-X[0], RMS_MOMENTUM-X[1], RMS_MOMENTUM-X[2], RMS_MOMENTUM-Y[0], RMS_MOMENTUM-Y[1], RMS_MOMENTUM-Y[2], RMS_MOMENTUM-Z[0], RMS_MOMENTUM-Z[1], RMS_MOMENTUM-Z[2], RMS_ENERGY[0], RMS_ENERGY[1], RMS_ENERGY[2], RMS_TKE[0], RMS_TKE[1], RMS_TKE[2], RMS_DISSIPATION[0], RMS_DISSIPATION[1], RMS_DISSIPATION[2])
%SCREEN_OUTPUT= (OUTER_ITER, RMS_DENSITY[0], RMS_DENSITY[1], RMS_DENSITY[2], RMS_MOMENTUM-X[0], RMS_MOMENTUM-X[1], RMS_MOMENTUM-X[2], RMS_MOMENTUM-Y[0], RMS_MOMENTUM-Y[1], RMS_MOMENTUM-Y[2], RMS_MOMENTUM-Z[0], RMS_MOMENTUM-Z[1], RMS_MOMENTUM-Z[2], RMS_ENERGY[0], RMS_ENERGY[1], RMS_ENERGY[2], RMS_NU_TILDE[0], RMS_NU_TILDE[1], RMS_NU_TILDE[2])

% History output groups (use 'SU2_CFD -d <config_file>' to view list of available fields)
%HISTORY_OUTPUT= (OUTER_ITER, RMS_DENSITY[0], RMS_DENSITY[1], RMS_DENSITY[2], RMS_MOMENTUM-X[0], RMS_MOMENTUM-X[1], RMS_MOMENTUM-X[2], RMS_MOMENTUM-Y[0], RMS_MOMENTUM-Y[1], RMS_MOMENTUM-Y[2], RMS_MOMENTUM-Z[0], RMS_MOMENTUM-Z[1], RMS_MOMENTUM-Z[2], RMS_ENERGY[0], RMS_ENERGY[1], RMS_ENERGY[2], RMS_NU_TILDE[0], RMS_NU_TILDE[1], RMS_NU_TILDE[2], TURBO_PERF)

% Writing frequency for screen output
SCREEN_WRT_FREQ_INNER= 1
%
SCREEN_WRT_FREQ_OUTER= 1
%
SCREEN_WRT_FREQ_TIME= 1
%
% Writing frequency for history output
HISTORY_WRT_FREQ_INNER= 1
%
HISTORY_WRT_FREQ_OUTER= 1
%
HISTORY_WRT_FREQ_TIME= 1
% Output the performance summary to the console at the end of SU2_CFD
WRT_PERFORMANCE= NO

%
% ------------------------- INPUT/OUTPUT INFORMATION --------------------------%
%
% Mesh input file
MESH_FILENAME= ./ANSYS_TurboGrid/R.cgns
%
% Mesh input file format (SU2, CGNS, NETCDF_ASCII)
MESH_FORMAT= CGNS
%
% Mesh output file
MESH_OUT_FILENAME= grid_R.su2
%
% Restart flow input file
SOLUTION_FILENAME= restart_flow.dat
%
% Restart adjoint input file
SOLUTION_ADJ_FILENAME= solution_adj.dat
%
% Output file format (PARAVIEW, TECPLOT, STL)
TABULAR_FORMAT= TECPLOT
%
% Output file convergence history (w/o extension) 
CONV_FILENAME= history
%
% Output file restart flow
RESTART_FILENAME= restart_flow.dat
%
% Output file restart adjoint
RESTART_ADJ_FILENAME= restart_adj.dat
%
% Output file flow (w/o extension) variables
VOLUME_FILENAME= flow
%
% Output file adjoint (w/o extension) variables
VOLUME_ADJ_FILENAME= adjoint
%
% Output objective function gradient (using continuous adjoint)
GRAD_OBJFUNC_FILENAME= of_grad.dat
%
% Output file surface flow coefficient (w/o extension)
SURFACE_FILENAME= surface_flow
%
% Output file surface adjoint coefficient (w/o extension)
SURFACE_ADJ_FILENAME= surface_adjoint
%
% Writing solution file frequency
OUTPUT_WRT_FREQ= 250
%
OUTPUT_FILES= (RESTART, PARAVIEW)